<edges>
   <edge id="0_1" from="0" to="1" numLanes="3" speed="38.8889"/>
   <edge id="1_0" from="1" to="0" numLanes="3" speed="38.8889"/>
   <edge id="1_2" from="1" to="2" numLanes="3" speed="38.8889"/>
   <edge id="2_1" from="2" to="1" numLanes="3" speed="38.8889"/>
   <edge id="2_3" from="2" to="3" numLanes="3" speed="38.8889"/>
   <edge id="3_2" from="3" to="2" numLanes="3" speed="38.8889"/>
</edges>
