<routes>
<route id="route0" color="1,1,0" edges="0_1 1_2 2_3"/>
<route id="route1" color="1,1,0" edges="3_2 2_1 1_0"/>
<vehicle id="0" route="route0" depart="0.019858" color="1,0,0" departLane="free" departSpeed="max" departPos="random_free"/>
<vehicle id="1" route="route1" depart="0.51049" color="1,0,0"  departLane="free" departSpeed="max" departPos="random_free"/>
<vehicle id="2" route="route0" depart="0.95239" color="1,0,0" departLane="free" departSpeed="max" departPos="random_free"/>
<vehicle id="3" route="route1" depart="1.443" color="1,0,0"  departLane="free" departSpeed="max" departPos="random_free"/>
<vehicle id="4" route="route0" depart="1.9118" color="1,0,0" departLane="free" departSpeed="max" departPos="random_free"/>
<vehicle id="5" route="route1" depart="2.3853" color="1,0,0"  departLane="free" departSpeed="max" departPos="random_free"/>
<vehicle id="6" route="route0" depart="2.866" color="1,0,0" departLane="free" departSpeed="max" departPos="random_free"/>
<vehicle id="7" route="route1" depart="3.3498" color="1,0,0"  departLane="free" departSpeed="max" departPos="random_free"/>
<vehicle id="8" route="route0" depart="3.8284" color="1,0,0" departLane="free" departSpeed="max" departPos="random_free"/>
<vehicle id="9" route="route1" depart="4.3114" color="1,0,0"  departLane="free" departSpeed="max" departPos="random_free"/>
<vehicle id="10" route="route0" depart="4.7819" color="1,0,0" departLane="free" departSpeed="max" departPos="random_free"/>
<vehicle id="11" route="route1" depart="5.2707" color="1,0,0"  departLane="free" departSpeed="max" departPos="random_free"/>
<vehicle id="12" route="route0" depart="5.724" color="1,0,0" departLane="free" departSpeed="max" departPos="random_free"/>
<vehicle id="13" route="route1" depart="6.2323" color="1,0,0"  departLane="free" departSpeed="max" departPos="random_free"/>
<vehicle id="14" route="route0" depart="6.668" color="1,0,0" departLane="free" departSpeed="max" departPos="random_free"/>
<vehicle id="15" route="route1" depart="7.1748" color="1,0,0"  departLane="free" departSpeed="max" departPos="random_free"/>
<vehicle id="16" route="route0" depart="7.6389" color="1,0,0" departLane="free" departSpeed="max" departPos="random_free"/>
<vehicle id="17" route="route1" depart="8.1218" color="1,0,0"  departLane="free" departSpeed="max" departPos="random_free"/>
<vehicle id="18" route="route0" depart="8.5781" color="1,0,0" departLane="free" departSpeed="max" departPos="random_free"/>
<vehicle id="19" route="route1" depart="9.0571" color="1,0,0"  departLane="free" departSpeed="max" departPos="random_free"/>
<vehicle id="20" route="route0" depart="9.5619" color="1,0,0" departLane="free" departSpeed="max" departPos="random_free"/>
<vehicle id="21" route="route1" depart="10.0461" color="1,0,0"  departLane="free" departSpeed="max" departPos="random_free"/>
<vehicle id="22" route="route0" depart="10.4911" color="1,0,0" departLane="free" departSpeed="max" departPos="random_free"/>
<vehicle id="23" route="route1" depart="10.9853" color="1,0,0"  departLane="free" departSpeed="max" departPos="random_free"/>
<vehicle id="24" route="route0" depart="11.4703" color="1,0,0" departLane="free" departSpeed="max" departPos="random_free"/>
<vehicle id="25" route="route1" depart="11.9474" color="1,0,0"  departLane="free" departSpeed="max" departPos="random_free"/>
<vehicle id="26" route="route0" depart="12.385" color="1,0,0" departLane="free" departSpeed="max" departPos="random_free"/>
<vehicle id="27" route="route1" depart="12.859" color="1,0,0"  departLane="free" departSpeed="max" departPos="random_free"/>
<vehicle id="28" route="route0" depart="13.3414" color="1,0,0" departLane="free" departSpeed="max" departPos="random_free"/>
<vehicle id="29" route="route1" depart="13.8513" color="1,0,0"  departLane="free" departSpeed="max" departPos="random_free"/>
<vehicle id="30" route="route0" depart="14.2904" color="1,0,0" departLane="free" departSpeed="max" departPos="random_free"/>
<vehicle id="31" route="route1" depart="14.782" color="1,0,0"  departLane="free" departSpeed="max" departPos="random_free"/>
<vehicle id="32" route="route0" depart="15.2837" color="1,0,0" departLane="free" departSpeed="max" departPos="random_free"/>
<vehicle id="33" route="route1" depart="15.7397" color="1,0,0"  departLane="free" departSpeed="max" departPos="random_free"/>
<vehicle id="34" route="route0" depart="16.2234" color="1,0,0" departLane="free" departSpeed="max" departPos="random_free"/>
<vehicle id="35" route="route1" depart="16.6817" color="1,0,0"  departLane="free" departSpeed="max" departPos="random_free"/>
<vehicle id="36" route="route0" depart="17.1755" color="1,0,0" departLane="free" departSpeed="max" departPos="random_free"/>
<vehicle id="37" route="route1" depart="17.6588" color="1,0,0"  departLane="free" departSpeed="max" departPos="random_free"/>
<vehicle id="38" route="route0" depart="18.0961" color="1,0,0" departLane="free" departSpeed="max" departPos="random_free"/>
<vehicle id="39" route="route1" depart="18.6071" color="1,0,0"  departLane="free" departSpeed="max" departPos="random_free"/>
<vehicle id="40" route="route0" depart="19.0947" color="1,0,0" departLane="free" departSpeed="max" departPos="random_free"/>
<vehicle id="41" route="route1" depart="19.5594" color="1,0,0"  departLane="free" departSpeed="max" departPos="random_free"/>
<vehicle id="42" route="route0" depart="20.0134" color="1,0,0" departLane="free" departSpeed="max" departPos="random_free"/>
<vehicle id="43" route="route1" depart="20.5138" color="1,0,0"  departLane="free" departSpeed="max" departPos="random_free"/>
<vehicle id="44" route="route0" depart="20.9573" color="1,0,0" departLane="free" departSpeed="max" departPos="random_free"/>
<vehicle id="45" route="route1" depart="21.4499" color="1,0,0"  departLane="free" departSpeed="max" departPos="random_free"/>
<vehicle id="46" route="route0" depart="21.948" color="1,0,0" departLane="free" departSpeed="max" departPos="random_free"/>
<vehicle id="47" route="route1" depart="22.3949" color="1,0,0"  departLane="free" departSpeed="max" departPos="random_free"/>
<vehicle id="48" route="route0" depart="22.8708" color="1,0,0" departLane="free" departSpeed="max" departPos="random_free"/>
<vehicle id="49" route="route1" depart="23.3395" color="1,0,0"  departLane="free" departSpeed="max" departPos="random_free"/>
<vehicle id="50" route="route0" depart="23.8104" color="1,0,0" departLane="free" departSpeed="max" departPos="random_free"/>
<vehicle id="51" route="route1" depart="24.318" color="1,0,0"  departLane="free" departSpeed="max" departPos="random_free"/>
<vehicle id="52" route="route0" depart="24.772" color="1,0,0" departLane="free" departSpeed="max" departPos="random_free"/>
<vehicle id="53" route="route1" depart="25.2507" color="1,0,0"  departLane="free" departSpeed="max" departPos="random_free"/>
<vehicle id="54" route="route0" depart="25.7377" color="1,0,0" departLane="free" departSpeed="max" departPos="random_free"/>
<vehicle id="55" route="route1" depart="26.193" color="1,0,0"  departLane="free" departSpeed="max" departPos="random_free"/>
<vehicle id="56" route="route0" depart="26.694" color="1,0,0" departLane="free" departSpeed="max" departPos="random_free"/>
<vehicle id="57" route="route1" depart="27.1498" color="1,0,0"  departLane="free" departSpeed="max" departPos="random_free"/>
<vehicle id="58" route="route0" depart="27.6471" color="1,0,0" departLane="free" departSpeed="max" departPos="random_free"/>
<vehicle id="59" route="route1" depart="28.1286" color="1,0,0"  departLane="free" departSpeed="max" departPos="random_free"/>
<vehicle id="60" route="route0" depart="28.5763" color="1,0,0" departLane="free" departSpeed="max" departPos="random_free"/>
<vehicle id="61" route="route1" depart="29.0673" color="1,0,0"  departLane="free" departSpeed="max" departPos="random_free"/>
<vehicle id="62" route="route0" depart="29.5569" color="1,0,0" departLane="free" departSpeed="max" departPos="random_free"/>
<vehicle id="63" route="route1" depart="30.0197" color="1,0,0"  departLane="free" departSpeed="max" departPos="random_free"/>
<vehicle id="64" route="route0" depart="30.4786" color="1,0,0" departLane="free" departSpeed="max" departPos="random_free"/>
<vehicle id="65" route="route1" depart="30.9779" color="1,0,0"  departLane="free" departSpeed="max" departPos="random_free"/>
<vehicle id="66" route="route0" depart="31.4602" color="1,0,0" departLane="free" departSpeed="max" departPos="random_free"/>
<vehicle id="67" route="route1" depart="31.9293" color="1,0,0"  departLane="free" departSpeed="max" departPos="random_free"/>
<vehicle id="68" route="route0" depart="32.4259" color="1,0,0" departLane="free" departSpeed="max" departPos="random_free"/>
<vehicle id="69" route="route1" depart="32.8851" color="1,0,0"  departLane="free" departSpeed="max" departPos="random_free"/>
<vehicle id="70" route="route0" depart="33.3764" color="1,0,0" departLane="free" departSpeed="max" departPos="random_free"/>
<vehicle id="71" route="route1" depart="33.8161" color="1,0,0"  departLane="free" departSpeed="max" departPos="random_free"/>
<vehicle id="72" route="route0" depart="34.2923" color="1,0,0" departLane="free" departSpeed="max" departPos="random_free"/>
<vehicle id="73" route="route1" depart="34.8004" color="1,0,0"  departLane="free" departSpeed="max" departPos="random_free"/>
<vehicle id="74" route="route0" depart="35.257" color="1,0,0" departLane="free" departSpeed="max" departPos="random_free"/>
<vehicle id="75" route="route1" depart="35.7222" color="1,0,0"  departLane="free" departSpeed="max" departPos="random_free"/>
<vehicle id="76" route="route0" depart="36.2346" color="1,0,0" departLane="free" departSpeed="max" departPos="random_free"/>
<vehicle id="77" route="route1" depart="36.6832" color="1,0,0"  departLane="free" departSpeed="max" departPos="random_free"/>
<vehicle id="78" route="route0" depart="37.1786" color="1,0,0" departLane="free" departSpeed="max" departPos="random_free"/>
<vehicle id="79" route="route1" depart="37.6536" color="1,0,0"  departLane="free" departSpeed="max" departPos="random_free"/>
<vehicle id="80" route="route0" depart="38.1373" color="1,0,0" departLane="free" departSpeed="max" departPos="random_free"/>
<vehicle id="81" route="route1" depart="38.6011" color="1,0,0"  departLane="free" departSpeed="max" departPos="random_free"/>
<vehicle id="82" route="route0" depart="39.0834" color="1,0,0" departLane="free" departSpeed="max" departPos="random_free"/>
<vehicle id="83" route="route1" depart="39.5404" color="1,0,0"  departLane="free" departSpeed="max" departPos="random_free"/>
<vehicle id="84" route="route0" depart="40.0129" color="1,0,0" departLane="free" departSpeed="max" departPos="random_free"/>
<vehicle id="85" route="route1" depart="40.5189" color="1,0,0"  departLane="free" departSpeed="max" departPos="random_free"/>
<vehicle id="86" route="route0" depart="40.9728" color="1,0,0" departLane="free" departSpeed="max" departPos="random_free"/>
<vehicle id="87" route="route1" depart="41.4745" color="1,0,0"  departLane="free" departSpeed="max" departPos="random_free"/>
<vehicle id="88" route="route0" depart="41.9364" color="1,0,0" departLane="free" departSpeed="max" departPos="random_free"/>
<vehicle id="89" route="route1" depart="42.4106" color="1,0,0"  departLane="free" departSpeed="max" departPos="random_free"/>
<vehicle id="90" route="route0" depart="42.8626" color="1,0,0" departLane="free" departSpeed="max" departPos="random_free"/>
<vehicle id="91" route="route1" depart="43.3785" color="1,0,0"  departLane="free" departSpeed="max" departPos="random_free"/>
<vehicle id="92" route="route0" depart="43.8309" color="1,0,0" departLane="free" departSpeed="max" departPos="random_free"/>
<vehicle id="93" route="route1" depart="44.3133" color="1,0,0"  departLane="free" departSpeed="max" departPos="random_free"/>
<vehicle id="94" route="route0" depart="44.7813" color="1,0,0" departLane="free" departSpeed="max" departPos="random_free"/>
<vehicle id="95" route="route1" depart="45.2494" color="1,0,0"  departLane="free" departSpeed="max" departPos="random_free"/>
<vehicle id="96" route="route0" depart="45.7573" color="1,0,0" departLane="free" departSpeed="max" departPos="random_free"/>
<vehicle id="97" route="route1" depart="46.2178" color="1,0,0"  departLane="free" departSpeed="max" departPos="random_free"/>
<vehicle id="98" route="route0" depart="46.6668" color="1,0,0" departLane="free" departSpeed="max" departPos="random_free"/>
<vehicle id="99" route="route1" depart="47.1722" color="1,0,0"  departLane="free" departSpeed="max" departPos="random_free"/>
<vehicle id="100" route="route0" depart="47.6346" color="1,0,0" departLane="free" departSpeed="max" departPos="random_free"/>
<vehicle id="101" route="route1" depart="48.1203" color="1,0,0"  departLane="free" departSpeed="max" departPos="random_free"/>
<vehicle id="102" route="route0" depart="48.6136" color="1,0,0" departLane="free" departSpeed="max" departPos="random_free"/>
<vehicle id="103" route="route1" depart="49.0646" color="1,0,0"  departLane="free" departSpeed="max" departPos="random_free"/>
<vehicle id="104" route="route0" depart="49.5671" color="1,0,0" departLane="free" departSpeed="max" departPos="random_free"/>
<vehicle id="105" route="route1" depart="50.0297" color="1,0,0"  departLane="free" departSpeed="max" departPos="random_free"/>
<vehicle id="106" route="route0" depart="50.4769" color="1,0,0" departLane="free" departSpeed="max" departPos="random_free"/>
<vehicle id="107" route="route1" depart="50.9966" color="1,0,0"  departLane="free" departSpeed="max" departPos="random_free"/>
<vehicle id="108" route="route0" depart="51.4615" color="1,0,0" departLane="free" departSpeed="max" departPos="random_free"/>
<vehicle id="109" route="route1" depart="51.9523" color="1,0,0"  departLane="free" departSpeed="max" departPos="random_free"/>
<vehicle id="110" route="route0" depart="52.3892" color="1,0,0" departLane="free" departSpeed="max" departPos="random_free"/>
<vehicle id="111" route="route1" depart="52.8637" color="1,0,0"  departLane="free" departSpeed="max" departPos="random_free"/>
<vehicle id="112" route="route0" depart="53.3777" color="1,0,0" departLane="free" departSpeed="max" departPos="random_free"/>
<vehicle id="113" route="route1" depart="53.8427" color="1,0,0"  departLane="free" departSpeed="max" departPos="random_free"/>
<vehicle id="114" route="route0" depart="54.2889" color="1,0,0" departLane="free" departSpeed="max" departPos="random_free"/>
<vehicle id="115" route="route1" depart="54.7979" color="1,0,0"  departLane="free" departSpeed="max" departPos="random_free"/>
<vehicle id="116" route="route0" depart="55.274" color="1,0,0" departLane="free" departSpeed="max" departPos="random_free"/>
<vehicle id="117" route="route1" depart="55.7582" color="1,0,0"  departLane="free" departSpeed="max" departPos="random_free"/>
<vehicle id="118" route="route0" depart="56.2244" color="1,0,0" departLane="free" departSpeed="max" departPos="random_free"/>
<vehicle id="119" route="route1" depart="56.6726" color="1,0,0"  departLane="free" departSpeed="max" departPos="random_free"/>
<vehicle id="120" route="route0" depart="57.1438" color="1,0,0" departLane="free" departSpeed="max" departPos="random_free"/>
<vehicle id="121" route="route1" depart="57.6203" color="1,0,0"  departLane="free" departSpeed="max" departPos="random_free"/>
<vehicle id="122" route="route0" depart="58.0966" color="1,0,0" departLane="free" departSpeed="max" departPos="random_free"/>
<vehicle id="123" route="route1" depart="58.5832" color="1,0,0"  departLane="free" departSpeed="max" departPos="random_free"/>
<vehicle id="124" route="route0" depart="59.0886" color="1,0,0" departLane="free" departSpeed="max" departPos="random_free"/>
<vehicle id="125" route="route1" depart="59.5495" color="1,0,0"  departLane="free" departSpeed="max" departPos="random_free"/>
<vehicle id="126" route="route0" depart="60.0263" color="1,0,0" departLane="free" departSpeed="max" departPos="random_free"/>
<vehicle id="127" route="route1" depart="60.5163" color="1,0,0"  departLane="free" departSpeed="max" departPos="random_free"/>
<vehicle id="128" route="route0" depart="60.9583" color="1,0,0" departLane="free" departSpeed="max" departPos="random_free"/>
<vehicle id="129" route="route1" depart="61.4419" color="1,0,0"  departLane="free" departSpeed="max" departPos="random_free"/>
<vehicle id="130" route="route0" depart="61.9327" color="1,0,0" departLane="free" departSpeed="max" departPos="random_free"/>
<vehicle id="131" route="route1" depart="62.4271" color="1,0,0"  departLane="free" departSpeed="max" departPos="random_free"/>
<vehicle id="132" route="route0" depart="62.8839" color="1,0,0" departLane="free" departSpeed="max" departPos="random_free"/>
<vehicle id="133" route="route1" depart="63.3342" color="1,0,0"  departLane="free" departSpeed="max" departPos="random_free"/>
<vehicle id="134" route="route0" depart="63.8476" color="1,0,0" departLane="free" departSpeed="max" departPos="random_free"/>
<vehicle id="135" route="route1" depart="64.2968" color="1,0,0"  departLane="free" departSpeed="max" departPos="random_free"/>
<vehicle id="136" route="route0" depart="64.8003" color="1,0,0" departLane="free" departSpeed="max" departPos="random_free"/>
<vehicle id="137" route="route1" depart="65.2566" color="1,0,0"  departLane="free" departSpeed="max" departPos="random_free"/>
<vehicle id="138" route="route0" depart="65.7554" color="1,0,0" departLane="free" departSpeed="max" departPos="random_free"/>
<vehicle id="139" route="route1" depart="66.2261" color="1,0,0"  departLane="free" departSpeed="max" departPos="random_free"/>
<vehicle id="140" route="route0" depart="66.6932" color="1,0,0" departLane="free" departSpeed="max" departPos="random_free"/>
<vehicle id="141" route="route1" depart="67.1494" color="1,0,0"  departLane="free" departSpeed="max" departPos="random_free"/>
<vehicle id="142" route="route0" depart="67.6219" color="1,0,0" departLane="free" departSpeed="max" departPos="random_free"/>
<vehicle id="143" route="route1" depart="68.101" color="1,0,0"  departLane="free" departSpeed="max" departPos="random_free"/>
<vehicle id="144" route="route0" depart="68.5736" color="1,0,0" departLane="free" departSpeed="max" departPos="random_free"/>
<vehicle id="145" route="route1" depart="69.0527" color="1,0,0"  departLane="free" departSpeed="max" departPos="random_free"/>
<vehicle id="146" route="route0" depart="69.5346" color="1,0,0" departLane="free" departSpeed="max" departPos="random_free"/>
<vehicle id="147" route="route1" depart="70.034" color="1,0,0"  departLane="free" departSpeed="max" departPos="random_free"/>
<vehicle id="148" route="route0" depart="70.5028" color="1,0,0" departLane="free" departSpeed="max" departPos="random_free"/>
<vehicle id="149" route="route1" depart="70.953" color="1,0,0"  departLane="free" departSpeed="max" departPos="random_free"/>
<vehicle id="150" route="route0" depart="71.432" color="1,0,0" departLane="free" departSpeed="max" departPos="random_free"/>
<vehicle id="151" route="route1" depart="71.9508" color="1,0,0"  departLane="free" departSpeed="max" departPos="random_free"/>
<vehicle id="152" route="route0" depart="72.408" color="1,0,0" departLane="free" departSpeed="max" departPos="random_free"/>
<vehicle id="153" route="route1" depart="72.8668" color="1,0,0"  departLane="free" departSpeed="max" departPos="random_free"/>
<vehicle id="154" route="route0" depart="73.3453" color="1,0,0" departLane="free" departSpeed="max" departPos="random_free"/>
<vehicle id="155" route="route1" depart="73.8449" color="1,0,0"  departLane="free" departSpeed="max" departPos="random_free"/>
<vehicle id="156" route="route0" depart="74.295" color="1,0,0" departLane="free" departSpeed="max" departPos="random_free"/>
<vehicle id="157" route="route1" depart="74.7896" color="1,0,0"  departLane="free" departSpeed="max" departPos="random_free"/>
<vehicle id="158" route="route0" depart="75.2843" color="1,0,0" departLane="free" departSpeed="max" departPos="random_free"/>
<vehicle id="159" route="route1" depart="75.7546" color="1,0,0"  departLane="free" departSpeed="max" departPos="random_free"/>
<vehicle id="160" route="route0" depart="76.2019" color="1,0,0" departLane="free" departSpeed="max" departPos="random_free"/>
<vehicle id="161" route="route1" depart="76.6902" color="1,0,0"  departLane="free" departSpeed="max" departPos="random_free"/>
<vehicle id="162" route="route0" depart="77.1724" color="1,0,0" departLane="free" departSpeed="max" departPos="random_free"/>
<vehicle id="163" route="route1" depart="77.6585" color="1,0,0"  departLane="free" departSpeed="max" departPos="random_free"/>
<vehicle id="164" route="route0" depart="78.1027" color="1,0,0" departLane="free" departSpeed="max" departPos="random_free"/>
<vehicle id="165" route="route1" depart="78.5723" color="1,0,0"  departLane="free" departSpeed="max" departPos="random_free"/>
<vehicle id="166" route="route0" depart="79.051" color="1,0,0" departLane="free" departSpeed="max" departPos="random_free"/>
<vehicle id="167" route="route1" depart="79.547" color="1,0,0"  departLane="free" departSpeed="max" departPos="random_free"/>
<vehicle id="168" route="route0" depart="80.0289" color="1,0,0" departLane="free" departSpeed="max" departPos="random_free"/>
<vehicle id="169" route="route1" depart="80.5033" color="1,0,0"  departLane="free" departSpeed="max" departPos="random_free"/>
<vehicle id="170" route="route0" depart="80.9675" color="1,0,0" departLane="free" departSpeed="max" departPos="random_free"/>
<vehicle id="171" route="route1" depart="81.4756" color="1,0,0"  departLane="free" departSpeed="max" departPos="random_free"/>
<vehicle id="172" route="route0" depart="81.9324" color="1,0,0" departLane="free" departSpeed="max" departPos="random_free"/>
<vehicle id="173" route="route1" depart="82.3991" color="1,0,0"  departLane="free" departSpeed="max" departPos="random_free"/>
<vehicle id="174" route="route0" depart="82.8834" color="1,0,0" departLane="free" departSpeed="max" departPos="random_free"/>
<vehicle id="175" route="route1" depart="83.3688" color="1,0,0"  departLane="free" departSpeed="max" departPos="random_free"/>
<vehicle id="176" route="route0" depart="83.8414" color="1,0,0" departLane="free" departSpeed="max" departPos="random_free"/>
<vehicle id="177" route="route1" depart="84.2983" color="1,0,0"  departLane="free" departSpeed="max" departPos="random_free"/>
<vehicle id="178" route="route0" depart="84.7651" color="1,0,0" departLane="free" departSpeed="max" departPos="random_free"/>
<vehicle id="179" route="route1" depart="85.2557" color="1,0,0"  departLane="free" departSpeed="max" departPos="random_free"/>
<vehicle id="180" route="route0" depart="85.7443" color="1,0,0" departLane="free" departSpeed="max" departPos="random_free"/>
<vehicle id="181" route="route1" depart="86.2005" color="1,0,0"  departLane="free" departSpeed="max" departPos="random_free"/>
<vehicle id="182" route="route0" depart="86.7025" color="1,0,0" departLane="free" departSpeed="max" departPos="random_free"/>
<vehicle id="183" route="route1" depart="87.146" color="1,0,0"  departLane="free" departSpeed="max" departPos="random_free"/>
<vehicle id="184" route="route0" depart="87.6314" color="1,0,0" departLane="free" departSpeed="max" departPos="random_free"/>
<vehicle id="185" route="route1" depart="88.1336" color="1,0,0"  departLane="free" departSpeed="max" departPos="random_free"/>
<vehicle id="186" route="route0" depart="88.5806" color="1,0,0" departLane="free" departSpeed="max" departPos="random_free"/>
<vehicle id="187" route="route1" depart="89.0781" color="1,0,0"  departLane="free" departSpeed="max" departPos="random_free"/>
<vehicle id="188" route="route0" depart="89.5488" color="1,0,0" departLane="free" departSpeed="max" departPos="random_free"/>
<vehicle id="189" route="route1" depart="90.044" color="1,0,0"  departLane="free" departSpeed="max" departPos="random_free"/>
<vehicle id="190" route="route0" depart="90.4887" color="1,0,0" departLane="free" departSpeed="max" departPos="random_free"/>
<vehicle id="191" route="route1" depart="90.9555" color="1,0,0"  departLane="free" departSpeed="max" departPos="random_free"/>
<vehicle id="192" route="route0" depart="91.4636" color="1,0,0" departLane="free" departSpeed="max" departPos="random_free"/>
<vehicle id="193" route="route1" depart="91.9415" color="1,0,0"  departLane="free" departSpeed="max" departPos="random_free"/>
<vehicle id="194" route="route0" depart="92.4242" color="1,0,0" departLane="free" departSpeed="max" departPos="random_free"/>
<vehicle id="195" route="route1" depart="92.9015" color="1,0,0"  departLane="free" departSpeed="max" departPos="random_free"/>
<vehicle id="196" route="route0" depart="93.334" color="1,0,0" departLane="free" departSpeed="max" departPos="random_free"/>
<vehicle id="197" route="route1" depart="93.8207" color="1,0,0"  departLane="free" departSpeed="max" departPos="random_free"/>
<vehicle id="198" route="route0" depart="94.3151" color="1,0,0" departLane="free" departSpeed="max" departPos="random_free"/>
<vehicle id="199" route="route1" depart="94.8071" color="1,0,0"  departLane="free" departSpeed="max" departPos="random_free"/>
<vehicle id="200" route="route0" depart="95.2833" color="1,0,0" departLane="free" departSpeed="max" departPos="random_free"/>
<vehicle id="201" route="route1" depart="95.7408" color="1,0,0"  departLane="free" departSpeed="max" departPos="random_free"/>
<vehicle id="202" route="route0" depart="96.2341" color="1,0,0" departLane="free" departSpeed="max" departPos="random_free"/>
<vehicle id="203" route="route1" depart="96.6972" color="1,0,0"  departLane="free" departSpeed="max" departPos="random_free"/>
<vehicle id="204" route="route0" depart="97.1614" color="1,0,0" departLane="free" departSpeed="max" departPos="random_free"/>
<vehicle id="205" route="route1" depart="97.6422" color="1,0,0"  departLane="free" departSpeed="max" departPos="random_free"/>
<vehicle id="206" route="route0" depart="98.124" color="1,0,0" departLane="free" departSpeed="max" departPos="random_free"/>
<vehicle id="207" route="route1" depart="98.5976" color="1,0,0"  departLane="free" departSpeed="max" departPos="random_free"/>
<vehicle id="208" route="route0" depart="99.0917" color="1,0,0" departLane="free" departSpeed="max" departPos="random_free"/>
<vehicle id="209" route="route1" depart="99.5676" color="1,0,0"  departLane="free" departSpeed="max" departPos="random_free"/>
<vehicle id="210" route="route0" depart="100.0188" color="1,0,0" departLane="free" departSpeed="max" departPos="random_free"/>
<vehicle id="211" route="route1" depart="100.5221" color="1,0,0"  departLane="free" departSpeed="max" departPos="random_free"/>
<vehicle id="212" route="route0" depart="100.9607" color="1,0,0" departLane="free" departSpeed="max" departPos="random_free"/>
<vehicle id="213" route="route1" depart="101.4346" color="1,0,0"  departLane="free" departSpeed="max" departPos="random_free"/>
<vehicle id="214" route="route0" depart="101.9112" color="1,0,0" departLane="free" departSpeed="max" departPos="random_free"/>
<vehicle id="215" route="route1" depart="102.405" color="1,0,0"  departLane="free" departSpeed="max" departPos="random_free"/>
<vehicle id="216" route="route0" depart="102.8582" color="1,0,0" departLane="free" departSpeed="max" departPos="random_free"/>
<vehicle id="217" route="route1" depart="103.3785" color="1,0,0"  departLane="free" departSpeed="max" departPos="random_free"/>
<vehicle id="218" route="route0" depart="103.8489" color="1,0,0" departLane="free" departSpeed="max" departPos="random_free"/>
<vehicle id="219" route="route1" depart="104.2864" color="1,0,0"  departLane="free" departSpeed="max" departPos="random_free"/>
<vehicle id="220" route="route0" depart="104.7703" color="1,0,0" departLane="free" departSpeed="max" departPos="random_free"/>
<vehicle id="221" route="route1" depart="105.2539" color="1,0,0"  departLane="free" departSpeed="max" departPos="random_free"/>
<vehicle id="222" route="route0" depart="105.7205" color="1,0,0" departLane="free" departSpeed="max" departPos="random_free"/>
<vehicle id="223" route="route1" depart="106.229" color="1,0,0"  departLane="free" departSpeed="max" departPos="random_free"/>
<vehicle id="224" route="route0" depart="106.6831" color="1,0,0" departLane="free" departSpeed="max" departPos="random_free"/>
<vehicle id="225" route="route1" depart="107.1876" color="1,0,0"  departLane="free" departSpeed="max" departPos="random_free"/>
<vehicle id="226" route="route0" depart="107.6468" color="1,0,0" departLane="free" departSpeed="max" departPos="random_free"/>
<vehicle id="227" route="route1" depart="108.1371" color="1,0,0"  departLane="free" departSpeed="max" departPos="random_free"/>
<vehicle id="228" route="route0" depart="108.6117" color="1,0,0" departLane="free" departSpeed="max" departPos="random_free"/>
<vehicle id="229" route="route1" depart="109.0907" color="1,0,0"  departLane="free" departSpeed="max" departPos="random_free"/>
<vehicle id="230" route="route0" depart="109.5457" color="1,0,0" departLane="free" departSpeed="max" departPos="random_free"/>
<vehicle id="231" route="route1" depart="110.026" color="1,0,0"  departLane="free" departSpeed="max" departPos="random_free"/>
<vehicle id="232" route="route0" depart="110.5142" color="1,0,0" departLane="free" departSpeed="max" departPos="random_free"/>
<vehicle id="233" route="route1" depart="110.966" color="1,0,0"  departLane="free" departSpeed="max" departPos="random_free"/>
<vehicle id="234" route="route0" depart="111.4519" color="1,0,0" departLane="free" departSpeed="max" departPos="random_free"/>
<vehicle id="235" route="route1" depart="111.9333" color="1,0,0"  departLane="free" departSpeed="max" departPos="random_free"/>
<vehicle id="236" route="route0" depart="112.3817" color="1,0,0" departLane="free" departSpeed="max" departPos="random_free"/>